<?xml version="1.0" encoding="UTF-8"?>

<!-- generated on 2025-05-01 02:31:17 by Eclipse SUMO netedit Version 1.22.0
<neteditConfiguration xmlns:xsi="http://www.w3.org/2001/XMLSchema-instance" xsi:noNamespaceSchemaLocation="http://sumo.dlr.de/xsd/neteditConfiguration.xsd">

    <input>
        <sumo-net-file value="D:\AI_Traffic_M_P_1\ai_traffic.net.xml"/>
    </input>

    <output>
        <output-file value="D:\AI_Traffic_M_P_1\ai_traffic.net.xml"/>
    </output>

    <processing>
        <offset.disable-normalization value="true"/>
    </processing>

    <junctions>
        <no-turnarounds value="true"/>
    </junctions>

    <netedit>
        <new-network value="false"/>
    </netedit>

</neteditConfiguration>
-->

<net version="1.20" junctionCornerDetail="5" limitTurnSpeed="5.50" xmlns:xsi="http://www.w3.org/2001/XMLSchema-instance" xsi:noNamespaceSchemaLocation="http://sumo.dlr.de/xsd/net_file.xsd">

    <location netOffset="0.00,0.00" convBoundary="-52.48,9.22,20.14,9.43" origBoundary="10000000000.00,10000000000.00,-10000000000.00,-10000000000.00" projParameter="!"/>

    <edge id="-E0" from="J1" to="J0" priority="-1">
        <lane id="-E0_0" index="0" speed="13.89" length="72.62" shape="20.14,11.03 -52.49,10.82"/>
    </edge>
    <edge id="E0" from="J0" to="J1" priority="-1">
        <lane id="E0_0" index="0" speed="13.89" length="72.62" shape="-52.48,7.62 20.15,7.83"/>
    </edge>

    <junction id="J0" type="dead_end" x="-52.48" y="9.22" incLanes="-E0_0" intLanes="" shape="-52.48,9.22 -52.49,12.42 -52.48,9.22"/>
    <junction id="J1" type="dead_end" x="20.14" y="9.43" incLanes="E0_0" intLanes="" shape="20.14,9.43 20.15,6.23 20.14,9.43"/>

</net>
