<?xml version="1.0" encoding="UTF-8"?>

<!-- generated on 2025-05-01 03:13:54 by Eclipse SUMO netedit Version 1.22.0
-->

<routes xmlns:xsi="http://www.w3.org/2001/XMLSchema-instance" xsi:noNamespaceSchemaLocation="http://sumo.dlr.de/xsd/routes_file.xsd">
    <!-- Vehicles, persons and containers (sorted by depart) -->
    <trip id="car" depart="0.00" from="E0" to="E0"/>
</routes>
